<routes>
  <vType id="EBUS"  accel="2.0" decel="4" length="5" maxSpeed="17.0" tau="0.5" speedFactor="1" sigma="0.01" minGap="0.5" color="1,0,0" />
  <vType id="EBUS2" accel="2.0" decel="4" length="5" maxSpeed="17.0" tau="0.5" speedFactor="1" sigma="0.01" minGap="0.5" color="1,1,1" />
  <route id="platoon_route" edges="e1to2 e2to3" />
    
  <vehicle type="EBUS2" id="d3" depart="0" departPos="185" departSpeed="2.25"   route="platoon_route" />
  <vehicle type="EBUS2" id="d4" depart="0" departPos="192" departSpeed="1.96"   route="platoon_route" />
  <vehicle type="EBUS2" id="d2" depart="0" departPos="174" departSpeed="2.68"  route="platoon_route" />
  <vehicle type="EBUS2" id="d1" depart="0" departPos="140" departSpeed="12.68"  route="platoon_route" />
 
  


  <vehicle type="EBUS" id="o1" depart="0" departPos="95" departSpeed="12.83" speedFactor="1" route="platoon_route"/>

  <vehicle type="EBUS2" id="d5" depart="0" departPos="199" departSpeed="0.03"   route="platoon_route" />
  
  

</routes>
<!-- testcfg for gui and francedata author="lukeliuli@163.com" 
<vehicle type="EBUS2" id="d2" depart="0" departPos="174" departSpeed="5.8"    route="platoon_route" />

 
-->
