<?xml version="1.0" encoding="UTF-8"?>

<configuration xmlns:xsi="http://www.w3.org/2001/XMLSchema-instance" xsi:noNamespaceSchemaLocation="http://sumo.dlr.de/xsd/sumoConfiguration.xsd">

     <input>
        <net-file value="my1Lane1TLS.net.xml"/>
        <route-files value="my1Lane1TlsVeh6.rou.xml"/>
      
    </input>
    
    
    <time>
        <begin value="0"/>
        <end value="50"/>
        <step-length value="0.1"/>
    </time>

    
	    

</configuration>
